/*--------------------------------*- C++ -*----------------------------------*\
| =========                 |                                                 |
| \\      /  F ield         | OpenFOAM: The Open Source CFD Toolbox           |
|  \\    /   O peration     | Version:  4.1                                   |
|   \\  /    A nd           | Web:      www.OpenFOAM.org                      |
|    \\/     M anipulation  |                                                 |
\*---------------------------------------------------------------------------*/
FoamFile
{
    version     2.0;
    format      ascii;
    class       featureEdgeMesh;
    location    "constant/triSurface";
    object      walls.eMesh;
}
// * * * * * * * * * * * * * * * * * * * * * * * * * * * * * * * * * * * * * //


// points:

187
(
(-3.885781116e-16 8 8)
(-3.885781116e-16 7.215863228 7.961478233)
(-3.885781116e-16 6.439277172 7.846282005)
(-3.885781116e-16 5.677722931 7.655522823)
(-3.885781116e-16 4.938532829 7.391036034)
(-3.885781116e-16 4.228826046 7.055369854)
(-3.885781116e-16 3.555438042 6.651756763)
(-3.885781116e-16 2.92485404 6.184083939)
(-3.885781116e-16 2.343146086 5.656854153)
(-3.885781116e-16 1.815915942 5.075146198)
(-3.885781116e-16 1.348242998 4.444561958)
(-3.885781116e-16 0.9446299076 3.771173954)
(-3.885781116e-16 0.608963728 3.061466932)
(-3.885781116e-16 0.3444772959 2.322277069)
(-3.885781116e-16 0.153717801 1.560722947)
(-3.885781116e-16 0.03852219135 0.7841371298)
(-3.885781116e-16 1.776357051e-15 4.898586881e-16)
(-3.885781116e-16 0.03852219135 -0.7841371298)
(-3.885781116e-16 0.153717801 -1.560722947)
(-3.885781116e-16 0.3444772959 -2.322277069)
(-3.885781116e-16 0.608963728 -3.061466932)
(-3.885781116e-16 0.9446299076 -3.771173954)
(-3.885781116e-16 1.348242998 -4.444561958)
(-3.885781116e-16 1.815915942 -5.075146198)
(-3.885781116e-16 2.343146086 -5.656854153)
(-3.885781116e-16 2.92485404 -6.184083939)
(-3.885781116e-16 3.555438042 -6.651756763)
(-3.885781116e-16 4.228826046 -7.055369854)
(-3.885781116e-16 4.938532829 -7.391036034)
(-3.885781116e-16 5.677722931 -7.655522823)
(-3.885781116e-16 6.439277172 -7.846282005)
(-3.885781116e-16 7.215863228 -7.961478233)
(-3.885781116e-16 8 -8)
(-3.885781116e-16 8.784136772 -7.961478233)
(-3.885781116e-16 9.560723305 -7.846282005)
(-3.885781116e-16 10.32227993 -7.655522823)
(-3.885781116e-16 11.06147003 -7.391036034)
(-3.885781116e-16 11.77116966 -7.055369854)
(-3.885781116e-16 12.44456005 -6.651756763)
(-3.885781116e-16 13.07514954 -6.184083939)
(-3.885781116e-16 13.65684986 -5.656854153)
(-3.885781116e-16 14.18408012 -5.075146198)
(-3.885781116e-16 14.6517601 -4.444561958)
(-3.885781116e-16 15.05537033 -3.771173954)
(-3.885781116e-16 15.39103985 -3.061466932)
(-3.885781116e-16 15.65552044 -2.322277069)
(-3.885781116e-16 15.8462801 -1.560722947)
(-3.885781116e-16 15.96148014 -0.7841371298)
(-3.885781116e-16 16 1.98467104e-14)
(-3.885781116e-16 15.96148014 0.7841371298)
(-3.885781116e-16 15.8462801 1.560722947)
(-3.885781116e-16 15.65552044 2.322277069)
(-3.885781116e-16 15.39103985 3.061466932)
(-3.885781116e-16 15.05537033 3.771173954)
(-3.885781116e-16 14.6517601 4.444561958)
(-3.885781116e-16 14.18408012 5.075146198)
(-3.885781116e-16 13.65684986 5.656854153)
(-3.885781116e-16 13.07514954 6.184083939)
(-3.885781116e-16 12.44456005 6.651756763)
(-3.885781116e-16 11.77116966 7.055369854)
(-3.885781116e-16 11.06147003 7.391036034)
(-3.885781116e-16 10.32227993 7.655522823)
(-3.885781116e-16 9.560723305 7.846282005)
(-3.885781116e-16 8.784136772 7.961478233)
(56.78414154 72 7.961478233)
(56 72 8)
(57.56071854 72 7.846282005)
(58.32228088 72 7.655522823)
(59.06147003 72 7.391036034)
(59.77117157 72 7.055369854)
(60.444561 72 6.651756763)
(61.07514954 72 6.184083939)
(61.65684891 72 5.656854153)
(62.18407822 72 5.075146198)
(62.6517601 72 4.444561958)
(63.05537033 72 3.771173954)
(63.3910408 72 3.061466932)
(63.65552139 72 2.322277069)
(63.84627914 72 1.560722947)
(63.96147919 72 0.7841371298)
(64 72 4.898586881e-16)
(63.96147919 72 -0.7841371298)
(63.84627914 72 -1.560722947)
(63.65552139 72 -2.322277069)
(63.3910408 72 -3.061466932)
(63.05537033 72 -3.771173954)
(62.6517601 72 -4.444561958)
(62.18407822 72 -5.075146198)
(61.65684891 72 -5.656854153)
(61.07514954 72 -6.184083939)
(60.444561 72 -6.651756763)
(59.77117157 72 -7.055369854)
(59.06147003 72 -7.391036034)
(58.32228088 72 -7.655522823)
(57.56071854 72 -7.846282005)
(56.78414154 72 -7.961478233)
(56 72 -8)
(55.21585846 72 -7.961478233)
(54.43928146 72 -7.846282005)
(53.67771912 72 -7.655522823)
(52.93852997 72 -7.391036034)
(52.22882843 72 -7.055369854)
(51.555439 72 -6.651756763)
(50.92485046 72 -6.184083939)
(50.34315109 72 -5.656854153)
(49.81592178 72 -5.075146198)
(49.3482399 72 -4.444561958)
(48.94462967 72 -3.771173954)
(48.6089592 72 -3.061466932)
(48.34447861 72 -2.322277069)
(48.15372086 72 -1.560722947)
(48.03852081 72 -0.7841371298)
(48 72 1.98467104e-14)
(48.03852081 72 0.7841371298)
(48.15372086 72 1.560722947)
(48.34447861 72 2.322277069)
(48.6089592 72 3.061466932)
(48.94462967 72 3.771173954)
(49.3482399 72 4.444561958)
(49.81592178 72 5.075146198)
(50.34315109 72 5.656854153)
(50.92485046 72 6.184083939)
(51.555439 72 6.651756763)
(52.22882843 72 7.055369854)
(52.93852997 72 7.391036034)
(53.67771912 72 7.655522823)
(54.43928146 72 7.846282005)
(55.21585846 72 7.961478233)
(52.69034958 -4.5 -0.8515586257)
(52.53543091 -4.5 -0.3747625947)
(54.5 -4.5 2)
(54.9973793 -4.5 1.937165976)
(52.50394821 -4.5 0.1255809963)
(55.46350861 -4.5 1.752612948)
(52.59788895 -4.5 0.6180340052)
(55.86909103 -4.5 1.457937002)
(52.81134033 -4.5 1.071653962)
(56.18865967 -4.5 1.071653962)
(53.13090897 -4.5 1.457937002)
(56.40211105 -4.5 0.6180340052)
(53.53649139 -4.5 1.752612948)
(54.0026207 -4.5 1.937165976)
(56.49605179 -4.5 0.1255809963)
(56.46456909 -4.5 -0.3747625947)
(56.30965042 -4.5 -0.8515586257)
(56.04103088 -4.5 -1.274847984)
(55.67557144 -4.5 -1.618034005)
(55.23625183 -4.5 -1.859552979)
(54.75067139 -4.5 -1.984228969)
(54.24932861 -4.5 -1.984228969)
(53.76374817 -4.5 -1.859552979)
(53.32442856 -4.5 -1.618034005)
(52.95896912 -4.5 -1.274847984)
(52.52246857 7.454719067 -0.2989372909)
(52.50009155 7.428784847 0.01942061074)
(52.52832031 7.461504936 0.3354052007)
(53.33246994 8.371738434 -1.623849034)
(53.00088882 8.001755714 -1.323879004)
(52.74443054 7.710358143 -0.9581112862)
(52.59973145 7.544053078 -0.6236832142)
(53.7028389 8.775182724 -1.834269047)
(54.16358948 9.261370659 -1.971503973)
(52.60129166 7.545853138 0.6284182072)
(52.70679855 7.667240143 0.8856905103)
(54.56341171 9.668063164 -1.998994946)
(52.83462906 7.813347816 1.107496023)
(55.32638168 10.40186977 -1.821288943)
(54.99966812 10.09465981 -1.936576009)
(53.02986145 8.034393311 1.355977058)
(53.27320862 8.306200027 1.579553008)
(55.64487839 10.6909399 -1.639889956)
(53.625 8.691291809 1.798439026)
(56.09571838 11.08215046 -1.205680966)
(55.91230011 10.92555046 -1.416126013)
(54.04777908 9.140875816 1.948202968)
(56.25632858 11.21636963 -0.9567217231)
(54.27173996 9.372814178 1.986932039)
(56.38467026 11.32166004 -0.6693534255)
(54.5 9.60454464 2)
(55.13711166 10.2251997 1.895807981)
(56.46945953 11.39029026 -0.3481605947)
(56.19625092 11.16648006 1.059592962)
(56.37760162 11.31591034 0.6889376044)
(56.47190857 11.39225006 0.3340317011)
(55.53195953 10.58963966 1.713202953)
(55.90462875 10.91891956 1.423735023)
(56.49998856 11.41479969 -0.007407843135)
)


// edges:

187
(
(153 154)
(154 155)
(156 157)
(157 158)
(158 159)
(159 153)
(160 156)
(161 160)
(155 162)
(162 163)
(164 161)
(163 165)
(166 167)
(167 164)
(165 168)
(168 169)
(170 166)
(169 171)
(172 173)
(173 170)
(171 174)
(175 172)
(174 176)
(177 175)
(176 178)
(178 179)
(180 177)
(181 182)
(182 183)
(184 185)
(179 184)
(183 186)
(186 180)
(185 181)
(0 1)
(1 2)
(2 3)
(3 4)
(4 5)
(5 6)
(6 7)
(7 8)
(8 9)
(9 10)
(10 11)
(11 12)
(12 13)
(13 14)
(14 15)
(15 16)
(16 17)
(17 18)
(18 19)
(19 20)
(20 21)
(21 22)
(22 23)
(23 24)
(24 25)
(25 26)
(26 27)
(27 28)
(28 29)
(29 30)
(30 31)
(31 32)
(32 33)
(33 34)
(34 35)
(35 36)
(36 37)
(37 38)
(38 39)
(39 40)
(40 41)
(41 42)
(42 43)
(43 44)
(44 45)
(45 46)
(46 47)
(47 48)
(48 49)
(49 50)
(50 51)
(51 52)
(52 53)
(53 54)
(54 55)
(55 56)
(56 57)
(57 58)
(58 59)
(59 60)
(60 61)
(61 62)
(62 63)
(63 0)
(64 65)
(66 64)
(67 66)
(68 67)
(69 68)
(70 69)
(71 70)
(72 71)
(73 72)
(74 73)
(75 74)
(76 75)
(77 76)
(78 77)
(79 78)
(80 79)
(81 80)
(82 81)
(83 82)
(84 83)
(85 84)
(86 85)
(87 86)
(88 87)
(89 88)
(90 89)
(91 90)
(92 91)
(93 92)
(94 93)
(95 94)
(96 95)
(97 96)
(98 97)
(99 98)
(100 99)
(101 100)
(102 101)
(103 102)
(104 103)
(105 104)
(106 105)
(107 106)
(108 107)
(109 108)
(110 109)
(111 110)
(112 111)
(113 112)
(114 113)
(115 114)
(116 115)
(117 116)
(118 117)
(119 118)
(120 119)
(121 120)
(122 121)
(123 122)
(124 123)
(125 124)
(126 125)
(127 126)
(65 127)
(128 129)
(130 131)
(129 132)
(131 133)
(132 134)
(133 135)
(134 136)
(135 137)
(136 138)
(137 139)
(138 140)
(140 141)
(139 142)
(142 143)
(141 130)
(143 144)
(144 145)
(145 146)
(146 147)
(147 148)
(148 149)
(149 150)
(150 151)
(151 152)
(152 128)
)

// * * * * * * * * * * * * * * * * * * * * * * * * * * * * * * * * * * * * * //


// ************************************************************************* //
