/*--------------------------------*- C++ -*----------------------------------*\
| =========                 |                                                 |
| \\      /  F ield         | OpenFOAM: The Open Source CFD Toolbox           |
|  \\    /   O peration     | Version:  4.1                                   |
|   \\  /    A nd           | Web:      www.OpenFOAM.org                      |
|    \\/     M anipulation  |                                                 |
\*---------------------------------------------------------------------------*/
FoamFile
{
    version     2.0;
    format      ascii;
    class       extendedFeatureEdgeMesh;
    location    "constant/extendedFeatureEdgeMesh";
    object      walls.extendedFeatureEdgeMesh;
}
// * * * * * * * * * * * * * * * * * * * * * * * * * * * * * * * * * * * * * //

// points

187
(
(-3.885781116e-16 8 8)
(-3.885781116e-16 7.215863228 7.961478233)
(-3.885781116e-16 6.439277172 7.846282005)
(-3.885781116e-16 5.677722931 7.655522823)
(-3.885781116e-16 4.938532829 7.391036034)
(-3.885781116e-16 4.228826046 7.055369854)
(-3.885781116e-16 3.555438042 6.651756763)
(-3.885781116e-16 2.92485404 6.184083939)
(-3.885781116e-16 2.343146086 5.656854153)
(-3.885781116e-16 1.815915942 5.075146198)
(-3.885781116e-16 1.348242998 4.444561958)
(-3.885781116e-16 0.9446299076 3.771173954)
(-3.885781116e-16 0.608963728 3.061466932)
(-3.885781116e-16 0.3444772959 2.322277069)
(-3.885781116e-16 0.153717801 1.560722947)
(-3.885781116e-16 0.03852219135 0.7841371298)
(-3.885781116e-16 1.776357051e-15 4.898586881e-16)
(-3.885781116e-16 0.03852219135 -0.7841371298)
(-3.885781116e-16 0.153717801 -1.560722947)
(-3.885781116e-16 0.3444772959 -2.322277069)
(-3.885781116e-16 0.608963728 -3.061466932)
(-3.885781116e-16 0.9446299076 -3.771173954)
(-3.885781116e-16 1.348242998 -4.444561958)
(-3.885781116e-16 1.815915942 -5.075146198)
(-3.885781116e-16 2.343146086 -5.656854153)
(-3.885781116e-16 2.92485404 -6.184083939)
(-3.885781116e-16 3.555438042 -6.651756763)
(-3.885781116e-16 4.228826046 -7.055369854)
(-3.885781116e-16 4.938532829 -7.391036034)
(-3.885781116e-16 5.677722931 -7.655522823)
(-3.885781116e-16 6.439277172 -7.846282005)
(-3.885781116e-16 7.215863228 -7.961478233)
(-3.885781116e-16 8 -8)
(-3.885781116e-16 8.784136772 -7.961478233)
(-3.885781116e-16 9.560723305 -7.846282005)
(-3.885781116e-16 10.32227993 -7.655522823)
(-3.885781116e-16 11.06147003 -7.391036034)
(-3.885781116e-16 11.77116966 -7.055369854)
(-3.885781116e-16 12.44456005 -6.651756763)
(-3.885781116e-16 13.07514954 -6.184083939)
(-3.885781116e-16 13.65684986 -5.656854153)
(-3.885781116e-16 14.18408012 -5.075146198)
(-3.885781116e-16 14.6517601 -4.444561958)
(-3.885781116e-16 15.05537033 -3.771173954)
(-3.885781116e-16 15.39103985 -3.061466932)
(-3.885781116e-16 15.65552044 -2.322277069)
(-3.885781116e-16 15.8462801 -1.560722947)
(-3.885781116e-16 15.96148014 -0.7841371298)
(-3.885781116e-16 16 1.98467104e-14)
(-3.885781116e-16 15.96148014 0.7841371298)
(-3.885781116e-16 15.8462801 1.560722947)
(-3.885781116e-16 15.65552044 2.322277069)
(-3.885781116e-16 15.39103985 3.061466932)
(-3.885781116e-16 15.05537033 3.771173954)
(-3.885781116e-16 14.6517601 4.444561958)
(-3.885781116e-16 14.18408012 5.075146198)
(-3.885781116e-16 13.65684986 5.656854153)
(-3.885781116e-16 13.07514954 6.184083939)
(-3.885781116e-16 12.44456005 6.651756763)
(-3.885781116e-16 11.77116966 7.055369854)
(-3.885781116e-16 11.06147003 7.391036034)
(-3.885781116e-16 10.32227993 7.655522823)
(-3.885781116e-16 9.560723305 7.846282005)
(-3.885781116e-16 8.784136772 7.961478233)
(56.78414154 72 7.961478233)
(56 72 8)
(57.56071854 72 7.846282005)
(58.32228088 72 7.655522823)
(59.06147003 72 7.391036034)
(59.77117157 72 7.055369854)
(60.444561 72 6.651756763)
(61.07514954 72 6.184083939)
(61.65684891 72 5.656854153)
(62.18407822 72 5.075146198)
(62.6517601 72 4.444561958)
(63.05537033 72 3.771173954)
(63.3910408 72 3.061466932)
(63.65552139 72 2.322277069)
(63.84627914 72 1.560722947)
(63.96147919 72 0.7841371298)
(64 72 4.898586881e-16)
(63.96147919 72 -0.7841371298)
(63.84627914 72 -1.560722947)
(63.65552139 72 -2.322277069)
(63.3910408 72 -3.061466932)
(63.05537033 72 -3.771173954)
(62.6517601 72 -4.444561958)
(62.18407822 72 -5.075146198)
(61.65684891 72 -5.656854153)
(61.07514954 72 -6.184083939)
(60.444561 72 -6.651756763)
(59.77117157 72 -7.055369854)
(59.06147003 72 -7.391036034)
(58.32228088 72 -7.655522823)
(57.56071854 72 -7.846282005)
(56.78414154 72 -7.961478233)
(56 72 -8)
(55.21585846 72 -7.961478233)
(54.43928146 72 -7.846282005)
(53.67771912 72 -7.655522823)
(52.93852997 72 -7.391036034)
(52.22882843 72 -7.055369854)
(51.555439 72 -6.651756763)
(50.92485046 72 -6.184083939)
(50.34315109 72 -5.656854153)
(49.81592178 72 -5.075146198)
(49.3482399 72 -4.444561958)
(48.94462967 72 -3.771173954)
(48.6089592 72 -3.061466932)
(48.34447861 72 -2.322277069)
(48.15372086 72 -1.560722947)
(48.03852081 72 -0.7841371298)
(48 72 1.98467104e-14)
(48.03852081 72 0.7841371298)
(48.15372086 72 1.560722947)
(48.34447861 72 2.322277069)
(48.6089592 72 3.061466932)
(48.94462967 72 3.771173954)
(49.3482399 72 4.444561958)
(49.81592178 72 5.075146198)
(50.34315109 72 5.656854153)
(50.92485046 72 6.184083939)
(51.555439 72 6.651756763)
(52.22882843 72 7.055369854)
(52.93852997 72 7.391036034)
(53.67771912 72 7.655522823)
(54.43928146 72 7.846282005)
(55.21585846 72 7.961478233)
(52.69034958 -4.5 -0.8515586257)
(52.53543091 -4.5 -0.3747625947)
(54.5 -4.5 2)
(54.9973793 -4.5 1.937165976)
(52.50394821 -4.5 0.1255809963)
(55.46350861 -4.5 1.752612948)
(52.59788895 -4.5 0.6180340052)
(55.86909103 -4.5 1.457937002)
(52.81134033 -4.5 1.071653962)
(56.18865967 -4.5 1.071653962)
(53.13090897 -4.5 1.457937002)
(56.40211105 -4.5 0.6180340052)
(53.53649139 -4.5 1.752612948)
(54.0026207 -4.5 1.937165976)
(56.49605179 -4.5 0.1255809963)
(56.46456909 -4.5 -0.3747625947)
(56.30965042 -4.5 -0.8515586257)
(56.04103088 -4.5 -1.274847984)
(55.67557144 -4.5 -1.618034005)
(55.23625183 -4.5 -1.859552979)
(54.75067139 -4.5 -1.984228969)
(54.24932861 -4.5 -1.984228969)
(53.76374817 -4.5 -1.859552979)
(53.32442856 -4.5 -1.618034005)
(52.95896912 -4.5 -1.274847984)
(52.52246857 7.454719067 -0.2989372909)
(52.50009155 7.428784847 0.01942061074)
(52.52832031 7.461504936 0.3354052007)
(53.33246994 8.371738434 -1.623849034)
(53.00088882 8.001755714 -1.323879004)
(52.74443054 7.710358143 -0.9581112862)
(52.59973145 7.544053078 -0.6236832142)
(53.7028389 8.775182724 -1.834269047)
(54.16358948 9.261370659 -1.971503973)
(52.60129166 7.545853138 0.6284182072)
(52.70679855 7.667240143 0.8856905103)
(54.56341171 9.668063164 -1.998994946)
(52.83462906 7.813347816 1.107496023)
(55.32638168 10.40186977 -1.821288943)
(54.99966812 10.09465981 -1.936576009)
(53.02986145 8.034393311 1.355977058)
(53.27320862 8.306200027 1.579553008)
(55.64487839 10.6909399 -1.639889956)
(53.625 8.691291809 1.798439026)
(56.09571838 11.08215046 -1.205680966)
(55.91230011 10.92555046 -1.416126013)
(54.04777908 9.140875816 1.948202968)
(56.25632858 11.21636963 -0.9567217231)
(54.27173996 9.372814178 1.986932039)
(56.38467026 11.32166004 -0.6693534255)
(54.5 9.60454464 2)
(55.13711166 10.2251997 1.895807981)
(56.46945953 11.39029026 -0.3481605947)
(56.19625092 11.16648006 1.059592962)
(56.37760162 11.31591034 0.6889376044)
(56.47190857 11.39225006 0.3340317011)
(55.53195953 10.58963966 1.713202953)
(55.90462875 10.91891956 1.423735023)
(56.49998856 11.41479969 -0.007407843135)
)

// edges

187
(
(153 154)
(154 155)
(156 157)
(157 158)
(158 159)
(159 153)
(160 156)
(161 160)
(155 162)
(162 163)
(164 161)
(163 165)
(166 167)
(167 164)
(165 168)
(168 169)
(170 166)
(169 171)
(172 173)
(173 170)
(171 174)
(175 172)
(174 176)
(177 175)
(176 178)
(178 179)
(180 177)
(181 182)
(182 183)
(184 185)
(179 184)
(183 186)
(186 180)
(185 181)
(0 1)
(1 2)
(2 3)
(3 4)
(4 5)
(5 6)
(6 7)
(7 8)
(8 9)
(9 10)
(10 11)
(11 12)
(12 13)
(13 14)
(14 15)
(15 16)
(16 17)
(17 18)
(18 19)
(19 20)
(20 21)
(21 22)
(22 23)
(23 24)
(24 25)
(25 26)
(26 27)
(27 28)
(28 29)
(29 30)
(30 31)
(31 32)
(32 33)
(33 34)
(34 35)
(35 36)
(36 37)
(37 38)
(38 39)
(39 40)
(40 41)
(41 42)
(42 43)
(43 44)
(44 45)
(45 46)
(46 47)
(47 48)
(48 49)
(49 50)
(50 51)
(51 52)
(52 53)
(53 54)
(54 55)
(55 56)
(56 57)
(57 58)
(58 59)
(59 60)
(60 61)
(61 62)
(62 63)
(63 0)
(64 65)
(66 64)
(67 66)
(68 67)
(69 68)
(70 69)
(71 70)
(72 71)
(73 72)
(74 73)
(75 74)
(76 75)
(77 76)
(78 77)
(79 78)
(80 79)
(81 80)
(82 81)
(83 82)
(84 83)
(85 84)
(86 85)
(87 86)
(88 87)
(89 88)
(90 89)
(91 90)
(92 91)
(93 92)
(94 93)
(95 94)
(96 95)
(97 96)
(98 97)
(99 98)
(100 99)
(101 100)
(102 101)
(103 102)
(104 103)
(105 104)
(106 105)
(107 106)
(108 107)
(109 108)
(110 109)
(111 110)
(112 111)
(113 112)
(114 113)
(115 114)
(116 115)
(117 116)
(118 117)
(119 118)
(120 119)
(121 120)
(122 121)
(123 122)
(124 123)
(125 124)
(126 125)
(127 126)
(65 127)
(128 129)
(130 131)
(129 132)
(131 133)
(132 134)
(133 135)
(134 136)
(135 137)
(136 138)
(137 139)
(138 140)
(140 141)
(139 142)
(142 143)
(141 130)
(143 144)
(144 145)
(145 146)
(146 147)
(147 148)
(148 149)
(149 150)
(150 151)
(151 152)
(152 128)
)

// concaveStart mixedStart nonFeatureStart
0 0 0
// internalStart flatStart openStart multipleStart
0 34 34 187
// normals

221
(
(0 -0.04906716257 0.9987954813)
(0 -0.146731183 0.9891764049)
(0 -0.2429799103 0.9700313207)
(0 -0.3368902398 0.9415439269)
(0 -0.4275549581 0.9039893571)
(0 -0.5141026067 0.8577286924)
(0 -0.5956991859 0.8032076195)
(0 -0.6715592543 0.7409508539)
(0 -0.7409506273 0.6715595044)
(0 -0.8032076546 0.5956991385)
(0 -0.8577286924 0.5141026067)
(0 -0.9039894127 0.4275548407)
(0 -0.9415440369 0.3368899323)
(0 -0.9700312178 0.2429803212)
(0 -0.9891765126 0.1467304564)
(0 -0.9987954559 0.04906767988)
(-0 -0.9987954559 -0.04906767988)
(-0 -0.9891765126 -0.1467304564)
(-0 -0.9700312178 -0.2429803212)
(-0 -0.9415440369 -0.3368899323)
(-0 -0.9039894127 -0.4275548407)
(-0 -0.8577286924 -0.5141026067)
(-0 -0.8032076546 -0.5956991385)
(-0 -0.7409506273 -0.6715595044)
(-0 -0.6715592543 -0.7409508539)
(-0 -0.5956991859 -0.8032076195)
(-0 -0.5141026067 -0.8577286924)
(-0 -0.4275549581 -0.9039893571)
(-0 -0.3368902398 -0.9415439269)
(-0 -0.2429799103 -0.9700313207)
(-0 -0.146731183 -0.9891764049)
(-0 -0.04906716257 -0.9987954813)
(0 0.04906716257 -0.9987954813)
(0 0.1467310949 -0.9891764179)
(0 0.2429791945 -0.9700315)
(0 0.3368902398 -0.9415439269)
(0 0.4275584794 -0.9039876917)
(0 0.5141012676 -0.857729495)
(0 0.5956958439 -0.803210098)
(0 0.6715640899 -0.7409464712)
(0 0.7409505517 -0.6715595878)
(0 0.8032033681 -0.5957049181)
(0 0.8577302993 -0.5140999257)
(0 0.9039877694 -0.4275583151)
(0 0.941546397 -0.3368833364)
(0 0.9700311686 -0.2429805176)
(0 0.9891756931 -0.1467359815)
(0 0.9987956015 -0.04906471661)
(0 0.9987956015 0.04906471661)
(0 0.9891756931 0.1467359815)
(0 0.9700311686 0.2429805176)
(0 0.941546397 0.3368833364)
(0 0.9039877694 0.4275583151)
(0 0.8577302993 0.5140999257)
(0 0.8032033681 0.5957049181)
(0 0.7409505517 0.6715595878)
(0 0.6715640899 0.7409464712)
(0 0.5956958439 0.803210098)
(0 0.5141012676 0.857729495)
(0 0.4275584794 0.9039876917)
(0 0.3368902398 0.9415439269)
(0 0.2429791945 0.9700315)
(0 0.1467310949 0.9891764179)
(0 0.04906716257 0.9987954813)
(0.04906686491 0 0.998795496)
(0.146732858 0 0.9891761564)
(0.2429774767 0 0.9700319303)
(0.3368906251 0 0.9415437891)
(0.4275575403 0 0.9039881358)
(0.5141018033 0 0.857729174)
(0.5956964251 0 0.803209667)
(0.6715646944 0 0.7409459233)
(0.7409511562 0 0.6715589209)
(0.8032022056 0 0.5957064855)
(0.8577302993 0 0.5140999257)
(0.9039872999 0 0.4275593077)
(0.941546397 0 0.3368833364)
(0.9700317412 0 0.2429782316)
(0.9891756931 0 0.1467359815)
(0.998795542 4.057487346e-17 0.04906592843)
(0.998795542 0 -0.04906592843)
(0.9891756931 0 -0.1467359815)
(0.9700317412 0 -0.2429782316)
(0.941546397 0 -0.3368833364)
(0.9039872999 0 -0.4275593077)
(0.8577302993 0 -0.5140999257)
(0.8032022056 0 -0.5957064855)
(0.7409511562 0 -0.6715589209)
(0.6715646944 0 -0.7409459233)
(0.5956964251 0 -0.803209667)
(0.5141018033 0 -0.857729174)
(0.4275575403 0 -0.9039881358)
(0.3368906251 0 -0.9415437891)
(0.2429774767 0 -0.9700319303)
(0.146732858 0 -0.9891761564)
(0.04906686491 0 -0.998795496)
(-0.04906686491 -0 -0.998795496)
(-0.146732858 -0 -0.9891761564)
(-0.2429774767 -0 -0.9700319303)
(-0.3368906251 -0 -0.9415437891)
(-0.4275575403 -0 -0.9039881358)
(-0.5141018033 -0 -0.857729174)
(-0.5956964251 -0 -0.803209667)
(-0.6715646944 -0 -0.7409459233)
(-0.7409511562 -0 -0.6715589209)
(-0.8032022056 -0 -0.5957064855)
(-0.8577302993 -0 -0.5140999257)
(-0.9039872999 -0 -0.4275593077)
(-0.941546397 -0 -0.3368833364)
(-0.9700317412 -0 -0.2429782316)
(-0.9891756931 -0 -0.1467359815)
(-0.998795542 3.185902312e-17 -0.04906592843)
(-0.998795542 0 0.04906592843)
(-0.9891756931 0 0.1467359815)
(-0.9700317412 0 0.2429782316)
(-0.941546397 0 0.3368833364)
(-0.9039872999 0 0.4275593077)
(-0.8577302993 0 0.5140999257)
(-0.8032022056 0 0.5957064855)
(-0.7409511562 0 0.6715589209)
(-0.6715646944 0 0.7409459233)
(-0.5956964251 0 0.803209667)
(-0.5141018033 0 0.857729174)
(-0.4275575403 0 0.9039881358)
(-0.3368906251 0 0.9415437891)
(-0.2429774767 0 0.9700319303)
(-0.146732858 0 0.9891761564)
(-0.04906686491 0 0.998795496)
(-0.9510567278 -0.001309060239 -0.3090135706)
(0.1253340311 0 0.9921146006)
(-0.9980258724 -0.0008815398059 -0.06279793773)
(0.3681233411 -0.0008818250927 0.9297765474)
(-0.9822863292 -0.001285527387 0.1873817358)
(0.5877891621 -0.0005534576891 0.8090139644)
(-0.904830909 -0.001266936476 0.425769211)
(0.7705058332 -0.0003619290697 0.6374328435)
(-0.7705054778 -0.001026382153 0.6374325495)
(0.9048315191 -0.0005065585844 0.4257694981)
(-0.5877888624 -0.001151539586 0.8090135519)
(-0.3681233779 -0.0007600415099 0.9297766404)
(0.982286683 -0.0009655213331 0.1873818033)
(0.998025963 -0.0007716353399 -0.06279794344)
(-0.1253339515 -0.001127660632 0.9921139698)
(0.9510571128 -0.0009508639869 -0.3090136957)
(0.844334978 -0.0007206812257 -0.5358151972)
(0.6845433552 -0.0009637168058 -0.7289715126)
(0.4817550608 -0.0006636429456 -0.8763056664)
(0.2486899696 -0.001080338002 -0.9685825375)
(0 -0.001042201017 -0.9999994569)
(-0.2486900616 -0.0006538053563 -0.9685828957)
(-0.4817550963 -0.0005413783651 -0.8763057309)
(-0.6845435643 -0.0005636296865 -0.7289717353)
(-0.8443348273 -0.0009360973518 -0.5358151016)
(0.6290550318 -0.7771263078 -0.01909106309)
(-0.9975350234 -0.0006365620743 -0.07016745609)
(0.6280591192 -0.7777820242 0.02443083388)
(-0.9960374758 0.0004694370286 0.08893326919)
(0.6501927611 -0.7358996578 -0.1889472602)
(-0.670925688 8.415200149e-05 -0.7415245877)
(0.6322947148 -0.7579236474 -0.1604840748)
(-0.8189744979 0.0004955877433 -0.5738297014)
(0.6465007817 -0.756772394 -0.09660374197)
(-0.9178844483 0.0006023525009 -0.3968472965)
(0.6229285703 -0.7794710856 -0.06621799588)
(-0.9728705305 0.0004125144226 -0.2313498663)
(0.6423918723 -0.7227150385 -0.2549816768)
(-0.4939100358 -8.425624028e-05 -0.869513007)
(0.6622495102 -0.7017393892 -0.2626545562)
(-0.2859548056 0.0005130514608 -0.9582429681)
(0.6250236801 -0.7776212373 0.06819538588)
(-0.9703662087 6.580242563e-05 0.2416390213)
(0.6441175811 -0.7591261084 0.09402177008)
(-0.9252091311 -6.576087934e-05 0.3794575857)
(0.6781793804 -0.68475734 -0.2667960143)
(-0.06909410895 0.0004919941606 -0.997610025)
(0.6245904992 -0.7672855429 0.1454634112)
(-0.8664652932 0.0001855856336 0.4992372795)
(0.708497764 -0.6535700787 -0.2662274791)
(0.3324156546 0.0004111898424 -0.9431328981)
(0.6931147717 -0.6698518916 -0.2662524302)
(0.1408410176 0.0008296867481 -0.990031878)
(0.6384151185 -0.7513953779 0.1668266242)
(-0.7861876487 -0.0003119091624 0.6179877699)
(0.6484708279 -0.7370779631 0.1902673426)
(-0.6768804749 0.0005309299786 0.7360927529)
(0.7249454936 -0.6417953421 -0.2501055179)
(0.4950773474 -0.0002497595225 -0.8688488693)
(0.642860223 -0.7260361731 0.2441356364)
(-0.5287634456 0.0005992104812 0.8487690261)
(0.7526406673 -0.6316235934 -0.1859668307)
(0.7537553261 0.0002716226288 -0.6571551069)
(0.7313170043 -0.6561820819 -0.1860121355)
(0.6416280064 0.0001928557888 -0.7670159478)
(0.6595714208 -0.706088151 0.2576918004)
(-0.3342308335 0.0003438970788 0.9424911839)
(0.7626796788 -0.6283544554 -0.1532657363)
(0.8404434819 -0.0005442265151 -0.5418989367)
(0.6705941711 -0.6921115962 0.2669925018)
(-0.1701635161 -0.0002339818036 0.9854158123)
(0.7431844573 -0.6631490676 -0.08893917323)
(0.9130257548 0.0003682784699 -0.4079017473)
(0.6784855729 -0.6835062965 0.2692145427)
(-0.0571567299 0 0.9983652179)
(0.6952569792 -0.6700111702 0.2601975492)
(0.1602058468 0.001252127315 0.9870828328)
(0.7744003254 -0.6288039201 -0.07006972271)
(0.966871181 0.0001297727121 -0.2552647694)
(0.7385163702 -0.6679209273 0.09206088098)
(0.8982645099 -9.693813261e-05 0.4394551864)
(0.811988603 -0.5764122385 0.09177929982)
(0.9664428953 0.000346053717 0.2568813157)
(0.7281307679 -0.6593174583 0.1874195137)
(0.6132442193 0.0003387145951 0.789893292)
(0.7167335306 -0.650060021 0.2524183339)
(0.419398324 0.0004684191177 0.9078021957)
(0.776327457 -0.6299372651 0.02224233526)
(0.9966328868 0.0004386178834 0.08199205166)
(0.7762913462 -0.6299079635 -0.02424259415)
(0.9960115509 -0.0001571647357 -0.08922424429)
(0.7494378399 -0.6414090965 0.1641258515)
(0.7805119223 0.0001030713297 0.6251408869)
)

// normal volume types

221
(
0
0
0
0
0
0
0
0
0
0
0
0
0
0
0
0
0
0
0
0
0
0
0
0
0
0
0
0
0
0
0
0
0
0
0
0
0
0
0
0
0
0
0
0
0
0
0
0
0
0
0
0
0
0
0
0
0
0
0
0
0
0
0
0
0
0
0
0
0
0
0
0
0
0
0
0
0
0
0
0
0
0
0
0
0
0
0
0
0
0
0
0
0
0
0
0
0
0
0
0
0
0
0
0
0
0
0
0
0
0
0
0
0
0
0
0
0
0
0
0
0
0
0
0
0
0
0
0
0
0
0
0
0
0
0
0
0
0
0
0
0
0
0
0
0
0
0
0
0
0
0
0
0
0
0
0
0
0
0
0
0
0
0
0
0
0
0
0
0
0
0
0
0
0
0
0
0
0
0
0
0
0
0
0
0
0
0
0
0
0
0
0
0
0
0
0
0
0
0
0
0
0
0
0
0
0
0
0
0
0
0
0
0
0
0
0
0
0
0
0
0
)

// normalDirections

187
(
2(1 -1)
2(1 -1)
2(1 -1)
2(1 -1)
2(1 -1)
2(1 -1)
2(1 -1)
2(1 -1)
2(1 -1)
2(1 -1)
2(1 -1)
2(1 -1)
2(1 -1)
2(1 -1)
2(1 -1)
2(1 -1)
2(1 -1)
2(1 -1)
2(1 -1)
2(1 -1)
2(1 -1)
2(1 -1)
2(1 -1)
2(1 -1)
2(1 -1)
2(1 -1)
2(1 -1)
2(1 -1)
2(1 -1)
2(1 -1)
2(1 -1)
2(1 -1)
2(1 -1)
2(1 -1)
1(1)
1(1)
1(1)
1(1)
1(1)
1(1)
1(1)
1(1)
1(1)
1(1)
1(1)
1(1)
1(1)
1(1)
1(1)
1(1)
1(1)
1(1)
1(1)
1(1)
1(1)
1(1)
1(1)
1(1)
1(1)
1(1)
1(1)
1(1)
1(1)
1(1)
1(1)
1(1)
1(1)
1(1)
1(1)
1(1)
1(1)
1(1)
1(1)
1(1)
1(1)
1(1)
1(1)
1(1)
1(1)
1(1)
1(1)
1(1)
1(1)
1(1)
1(1)
1(1)
1(1)
1(1)
1(1)
1(1)
1(1)
1(1)
1(1)
1(1)
1(1)
1(1)
1(1)
1(1)
1(1)
1(1)
1(1)
1(1)
1(1)
1(1)
1(1)
1(1)
1(1)
1(1)
1(1)
1(1)
1(1)
1(1)
1(1)
1(1)
1(1)
1(1)
1(1)
1(1)
1(1)
1(1)
1(1)
1(1)
1(1)
1(1)
1(1)
1(1)
1(1)
1(1)
1(1)
1(1)
1(1)
1(1)
1(1)
1(1)
1(1)
1(1)
1(1)
1(1)
1(1)
1(1)
1(1)
1(1)
1(1)
1(1)
1(1)
1(1)
1(1)
1(1)
1(1)
1(1)
1(1)
1(1)
1(1)
1(1)
1(1)
1(1)
1(1)
1(1)
1(1)
1(1)
1(1)
1(1)
1(1)
1(1)
1(1)
1(1)
1(1)
1(1)
1(1)
1(1)
1(1)
1(1)
1(1)
1(1)
1(1)
1(1)
1(1)
1(1)
1(1)
1(1)
1(1)
1(1)
1(1)
1(1)
1(1)
1(1)
1(1)
)

// edgeNormals

187
(
2(153 154)
2(155 156)
2(157 158)
2(159 160)
2(161 162)
2(163 164)
2(165 166)
2(167 168)
2(169 170)
2(171 172)
2(173 174)
2(175 176)
2(177 178)
2(179 180)
2(181 182)
2(183 184)
2(185 186)
2(187 188)
2(189 190)
2(191 192)
2(193 194)
2(195 196)
2(197 198)
2(199 200)
2(201 202)
2(203 204)
2(205 206)
2(207 208)
2(209 210)
2(211 212)
2(213 214)
2(215 216)
2(217 218)
2(219 220)
1(0)
1(1)
1(2)
1(3)
1(4)
1(5)
1(6)
1(7)
1(8)
1(9)
1(10)
1(11)
1(12)
1(13)
1(14)
1(15)
1(16)
1(17)
1(18)
1(19)
1(20)
1(21)
1(22)
1(23)
1(24)
1(25)
1(26)
1(27)
1(28)
1(29)
1(30)
1(31)
1(32)
1(33)
1(34)
1(35)
1(36)
1(37)
1(38)
1(39)
1(40)
1(41)
1(42)
1(43)
1(44)
1(45)
1(46)
1(47)
1(48)
1(49)
1(50)
1(51)
1(52)
1(53)
1(54)
1(55)
1(56)
1(57)
1(58)
1(59)
1(60)
1(61)
1(62)
1(63)
1(64)
1(65)
1(66)
1(67)
1(68)
1(69)
1(70)
1(71)
1(72)
1(73)
1(74)
1(75)
1(76)
1(77)
1(78)
1(79)
1(80)
1(81)
1(82)
1(83)
1(84)
1(85)
1(86)
1(87)
1(88)
1(89)
1(90)
1(91)
1(92)
1(93)
1(94)
1(95)
1(96)
1(97)
1(98)
1(99)
1(100)
1(101)
1(102)
1(103)
1(104)
1(105)
1(106)
1(107)
1(108)
1(109)
1(110)
1(111)
1(112)
1(113)
1(114)
1(115)
1(116)
1(117)
1(118)
1(119)
1(120)
1(121)
1(122)
1(123)
1(124)
1(125)
1(126)
1(127)
1(128)
1(129)
1(130)
1(131)
1(132)
1(133)
1(134)
1(135)
1(136)
1(137)
1(138)
1(139)
1(140)
1(141)
1(142)
1(143)
1(144)
1(145)
1(146)
1(147)
1(148)
1(149)
1(150)
1(151)
1(152)
)

// featurePointNormals
0()
// featurePointEdges
0()
// regionEdges

153
(
34
35
36
37
38
39
40
41
42
43
44
45
46
47
48
49
50
51
52
53
54
55
56
57
58
59
60
61
62
63
64
65
66
67
68
69
70
71
72
73
74
75
76
77
78
79
80
81
82
83
84
85
86
87
88
89
90
91
92
93
94
95
96
97
98
99
100
101
102
103
104
105
106
107
108
109
110
111
112
113
114
115
116
117
118
119
120
121
122
123
124
125
126
127
128
129
130
131
132
133
134
135
136
137
138
139
140
141
142
143
144
145
146
147
148
149
150
151
152
153
154
155
156
157
158
159
160
161
162
163
164
165
166
167
168
169
170
171
172
173
174
175
176
177
178
179
180
181
182
183
184
185
186
)



// ************************************************************************* //
